[root]
type=Root
children=system
eventq_index=0
full_system=false
sim_quantum=0
time_sync_enable=false
time_sync_period=100000000
time_sync_spin_threshold=100000

[system]
type=System
children=clk_domain cpu dvfs_handler mem_ctrls ruby sys_port_proxy voltage_domain
boot_osflags=a
cache_line_size=64
clk_domain=system.clk_domain
default_p_state=UNDEFINED
eventq_index=0
exit_on_work_items=false
init_param=0
kernel=
kernel_addr_check=true
kernel_extras=
kvm_vm=Null
load_addr_mask=18446744073709551615
load_offset=0
mem_mode=timing
mem_ranges=0:536870911:0:0:0:0
memories=system.mem_ctrls
mmap_using_noreserve=false
multi_thread=false
num_work_ids=16
p_state_clk_gate_bins=20
p_state_clk_gate_max=1000000000
p_state_clk_gate_min=1
power_model=
readfile=
symbolfile=
thermal_components=
thermal_model=Null
work_begin_ckpt_count=0
work_begin_cpu_id_exit=-1
work_begin_exit_count=0
work_cpus_ckpt_count=0
work_end_ckpt_count=0
work_end_exit_count=0
work_item_id=-1
system_port=system.sys_port_proxy.slave[0]

[system.clk_domain]
type=SrcClockDomain
clock=1
domain_id=-1
eventq_index=0
init_perf_level=0
voltage_domain=system.voltage_domain

[system.cpu]
type=RubyTester
check_flush=false
checks_to_complete=500000
clk_domain=system.clk_domain
deadlock_threshold=50000
default_p_state=UNDEFINED
eventq_index=0
num_cpus=8
p_state_clk_gate_bins=20
p_state_clk_gate_max=1000000000
p_state_clk_gate_min=1
power_model=
system=system
wakeup_frequency=10
cpuInstDataPort=system.ruby.l1_cntrl0.sequencer.slave[0] system.ruby.l1_cntrl1.sequencer.slave[0] system.ruby.l1_cntrl2.sequencer.slave[0] system.ruby.l1_cntrl3.sequencer.slave[0] system.ruby.l1_cntrl4.sequencer.slave[0] system.ruby.l1_cntrl5.sequencer.slave[0] system.ruby.l1_cntrl6.sequencer.slave[0] system.ruby.l1_cntrl7.sequencer.slave[0]

[system.dvfs_handler]
type=DVFSHandler
domains=
enable=false
eventq_index=0
sys_clk_domain=system.clk_domain
transition_latency=100000

[system.mem_ctrls]
type=DRAMCtrl
IDD0=0.055
IDD02=0.0
IDD2N=0.032
IDD2N2=0.0
IDD2P0=0.0
IDD2P02=0.0
IDD2P1=0.032
IDD2P12=0.0
IDD3N=0.038
IDD3N2=0.0
IDD3P0=0.0
IDD3P02=0.0
IDD3P1=0.038
IDD3P12=0.0
IDD4R=0.157
IDD4R2=0.0
IDD4W=0.125
IDD4W2=0.0
IDD5=0.235
IDD52=0.0
IDD6=0.02
IDD62=0.0
VDD=1.5
VDD2=0.0
activation_limit=4
addr_mapping=RoRaBaCoCh
bank_groups_per_rank=0
banks_per_rank=8
burst_length=8
channels=1
clk_domain=system.clk_domain
conf_table_reported=true
default_p_state=UNDEFINED
device_bus_width=8
device_rowbuffer_size=1024
device_size=536870912
devices_per_rank=8
dll=true
eventq_index=0
in_addr_map=true
kvm_map=true
max_accesses_per_row=16
mem_sched_policy=frfcfs
min_writes_per_switch=16
null=false
p_state_clk_gate_bins=20
p_state_clk_gate_max=1000000000
p_state_clk_gate_min=1
page_policy=open_adaptive
power_model=
qos_masters=               
qos_policy=Null
qos_priorities=1
qos_priority_escalation=false
qos_q_policy=fifo
qos_syncro_scheduler=false
qos_turnaround_policy=Null
range=0:536870911:5:19:0:0
ranks_per_channel=2
read_buffer_size=32
static_backend_latency=10
static_frontend_latency=10
tBURST=5
tCCD_L=0
tCCD_L_WR=0
tCK=1
tCL=14
tCS=3
tRAS=35
tRCD=14
tREFI=7800
tRFC=260
tRP=14
tRRD=6
tRRD_L=0
tRTP=8
tRTW=3
tWR=15
tWTR=8
tXAW=30
tXP=6
tXPDLL=0
tXS=270
tXSDLL=0
write_buffer_size=64
write_high_thresh_perc=85
write_low_thresh_perc=50
port=system.ruby.dir_cntrl0.memory

[system.ruby]
type=RubySystem
children=clk_domain dir_cntrl0 l1_cntrl0 l1_cntrl1 l1_cntrl2 l1_cntrl3 l1_cntrl4 l1_cntrl5 l1_cntrl6 l1_cntrl7 l2_cntrl0 memctrl_clk_domain network
access_backing_store=false
all_instructions=false
block_size_bytes=64
clk_domain=system.ruby.clk_domain
default_p_state=UNDEFINED
eventq_index=0
hot_lines=false
memory_size_bits=48
num_of_sequencers=8
number_of_virtual_networks=3
p_state_clk_gate_bins=20
p_state_clk_gate_max=1000000000
p_state_clk_gate_min=1
phys_mem=Null
power_model=
randomization=true

[system.ruby.clk_domain]
type=SrcClockDomain
clock=1
domain_id=-1
eventq_index=0
init_perf_level=0
voltage_domain=system.voltage_domain

[system.ruby.dir_cntrl0]
type=Directory_Controller
children=directory requestToDir responseFromDir responseFromMemory responseToDir
addr_ranges=0:536870911:5:19:0:0
buffer_size=0
clk_domain=system.ruby.clk_domain
cluster_id=0
default_p_state=UNDEFINED
directory=system.ruby.dir_cntrl0.directory
directory_latency=6
eventq_index=0
number_of_TBEs=256
p_state_clk_gate_bins=20
p_state_clk_gate_max=1000000000
p_state_clk_gate_min=1
power_model=
recycle_latency=10
requestToDir=system.ruby.dir_cntrl0.requestToDir
responseFromDir=system.ruby.dir_cntrl0.responseFromDir
responseFromMemory=system.ruby.dir_cntrl0.responseFromMemory
responseToDir=system.ruby.dir_cntrl0.responseToDir
ruby_system=system.ruby
system=system
to_mem_ctrl_latency=1
transitions_per_cycle=32
version=0
memory=system.mem_ctrls.port

[system.ruby.dir_cntrl0.directory]
type=RubyDirectoryMemory
addr_ranges=0:536870911:5:19:0:0
eventq_index=0

[system.ruby.dir_cntrl0.requestToDir]
type=MessageBuffer
buffer_size=0
eventq_index=0
ordered=false
randomization=false
slave=system.ruby.network.master[19]

[system.ruby.dir_cntrl0.responseFromDir]
type=MessageBuffer
buffer_size=0
eventq_index=0
ordered=false
randomization=false
master=system.ruby.network.slave[27]

[system.ruby.dir_cntrl0.responseFromMemory]
type=MessageBuffer
buffer_size=0
eventq_index=0
ordered=false
randomization=false

[system.ruby.dir_cntrl0.responseToDir]
type=MessageBuffer
buffer_size=0
eventq_index=0
ordered=false
randomization=false
slave=system.ruby.network.master[20]

[system.ruby.l1_cntrl0]
type=L1Cache_Controller
children=L1Dcache L1Icache mandatoryQueue optionalQueue prefetcher requestFromL1Cache requestToL1Cache responseFromL1Cache responseToL1Cache sequencer unblockFromL1Cache
L1Dcache=system.ruby.l1_cntrl0.L1Dcache
L1Icache=system.ruby.l1_cntrl0.L1Icache
addr_ranges=0:18446744073709551615:0:0:0:0
buffer_size=0
clk_domain=system.ruby.clk_domain
cluster_id=0
default_p_state=UNDEFINED
enable_prefetch=false
eventq_index=0
l1_request_latency=2
l1_response_latency=2
l2_select_num_bits=0
mandatoryQueue=system.ruby.l1_cntrl0.mandatoryQueue
number_of_TBEs=256
optionalQueue=system.ruby.l1_cntrl0.optionalQueue
p_state_clk_gate_bins=20
p_state_clk_gate_max=1000000000
p_state_clk_gate_min=1
power_model=
prefetcher=system.ruby.l1_cntrl0.prefetcher
recycle_latency=10
requestFromL1Cache=system.ruby.l1_cntrl0.requestFromL1Cache
requestToL1Cache=system.ruby.l1_cntrl0.requestToL1Cache
responseFromL1Cache=system.ruby.l1_cntrl0.responseFromL1Cache
responseToL1Cache=system.ruby.l1_cntrl0.responseToL1Cache
ruby_system=system.ruby
send_evictions=true
sequencer=system.ruby.l1_cntrl0.sequencer
system=system
to_l2_latency=1
transitions_per_cycle=4
unblockFromL1Cache=system.ruby.l1_cntrl0.unblockFromL1Cache
version=0

[system.ruby.l1_cntrl0.L1Dcache]
type=RubyCache
children=replacement_policy
assoc=2
block_size=0
dataAccessLatency=1
dataArrayBanks=1
eventq_index=0
is_icache=false
replacement_policy=system.ruby.l1_cntrl0.L1Dcache.replacement_policy
resourceStalls=false
ruby_system=system.ruby
size=131072
start_index_bit=6
tagAccessLatency=1
tagArrayBanks=1

[system.ruby.l1_cntrl0.L1Dcache.replacement_policy]
type=PseudoLRUReplacementPolicy
assoc=2
block_size=64
eventq_index=0
size=131072

[system.ruby.l1_cntrl0.L1Icache]
type=RubyCache
children=replacement_policy
assoc=2
block_size=0
dataAccessLatency=1
dataArrayBanks=1
eventq_index=0
is_icache=true
replacement_policy=system.ruby.l1_cntrl0.L1Icache.replacement_policy
resourceStalls=false
ruby_system=system.ruby
size=131072
start_index_bit=6
tagAccessLatency=1
tagArrayBanks=1

[system.ruby.l1_cntrl0.L1Icache.replacement_policy]
type=PseudoLRUReplacementPolicy
assoc=2
block_size=64
eventq_index=0
size=131072

[system.ruby.l1_cntrl0.mandatoryQueue]
type=MessageBuffer
buffer_size=0
eventq_index=0
ordered=false
randomization=false

[system.ruby.l1_cntrl0.optionalQueue]
type=MessageBuffer
buffer_size=0
eventq_index=0
ordered=false
randomization=false

[system.ruby.l1_cntrl0.prefetcher]
type=Prefetcher
cross_page=false
eventq_index=0
nonunit_filter=8
num_startup_pfs=1
num_streams=4
pf_per_stream=1
sys=system
train_misses=4
unit_filter=8

[system.ruby.l1_cntrl0.requestFromL1Cache]
type=MessageBuffer
buffer_size=0
eventq_index=0
ordered=false
randomization=false
master=system.ruby.network.slave[0]

[system.ruby.l1_cntrl0.requestToL1Cache]
type=MessageBuffer
buffer_size=0
eventq_index=0
ordered=false
randomization=false
slave=system.ruby.network.master[0]

[system.ruby.l1_cntrl0.responseFromL1Cache]
type=MessageBuffer
buffer_size=0
eventq_index=0
ordered=false
randomization=false
master=system.ruby.network.slave[1]

[system.ruby.l1_cntrl0.responseToL1Cache]
type=MessageBuffer
buffer_size=0
eventq_index=0
ordered=false
randomization=false
slave=system.ruby.network.master[1]

[system.ruby.l1_cntrl0.sequencer]
type=RubySequencer
clk_domain=system.ruby.clk_domain
coreid=99
dcache=system.ruby.l1_cntrl0.L1Dcache
dcache_hit_latency=1
deadlock_threshold=500000
default_p_state=UNDEFINED
eventq_index=0
garnet_standalone=false
icache=system.ruby.l1_cntrl0.L1Icache
icache_hit_latency=1
is_cpu_sequencer=true
max_outstanding_requests=16
no_retry_on_stall=true
p_state_clk_gate_bins=20
p_state_clk_gate_max=1000000000
p_state_clk_gate_min=1
power_model=
ruby_system=system.ruby
support_data_reqs=true
support_inst_reqs=true
system=system
using_ruby_tester=true
version=0
slave=system.cpu.cpuInstDataPort[0]

[system.ruby.l1_cntrl0.unblockFromL1Cache]
type=MessageBuffer
buffer_size=0
eventq_index=0
ordered=false
randomization=false
master=system.ruby.network.slave[2]

[system.ruby.l1_cntrl1]
type=L1Cache_Controller
children=L1Dcache L1Icache mandatoryQueue optionalQueue prefetcher requestFromL1Cache requestToL1Cache responseFromL1Cache responseToL1Cache sequencer unblockFromL1Cache
L1Dcache=system.ruby.l1_cntrl1.L1Dcache
L1Icache=system.ruby.l1_cntrl1.L1Icache
addr_ranges=0:18446744073709551615:0:0:0:0
buffer_size=0
clk_domain=system.ruby.clk_domain
cluster_id=0
default_p_state=UNDEFINED
enable_prefetch=false
eventq_index=0
l1_request_latency=2
l1_response_latency=2
l2_select_num_bits=0
mandatoryQueue=system.ruby.l1_cntrl1.mandatoryQueue
number_of_TBEs=256
optionalQueue=system.ruby.l1_cntrl1.optionalQueue
p_state_clk_gate_bins=20
p_state_clk_gate_max=1000000000
p_state_clk_gate_min=1
power_model=
prefetcher=system.ruby.l1_cntrl1.prefetcher
recycle_latency=10
requestFromL1Cache=system.ruby.l1_cntrl1.requestFromL1Cache
requestToL1Cache=system.ruby.l1_cntrl1.requestToL1Cache
responseFromL1Cache=system.ruby.l1_cntrl1.responseFromL1Cache
responseToL1Cache=system.ruby.l1_cntrl1.responseToL1Cache
ruby_system=system.ruby
send_evictions=true
sequencer=system.ruby.l1_cntrl1.sequencer
system=system
to_l2_latency=1
transitions_per_cycle=4
unblockFromL1Cache=system.ruby.l1_cntrl1.unblockFromL1Cache
version=1

[system.ruby.l1_cntrl1.L1Dcache]
type=RubyCache
children=replacement_policy
assoc=2
block_size=0
dataAccessLatency=1
dataArrayBanks=1
eventq_index=0
is_icache=false
replacement_policy=system.ruby.l1_cntrl1.L1Dcache.replacement_policy
resourceStalls=false
ruby_system=system.ruby
size=131072
start_index_bit=6
tagAccessLatency=1
tagArrayBanks=1

[system.ruby.l1_cntrl1.L1Dcache.replacement_policy]
type=PseudoLRUReplacementPolicy
assoc=2
block_size=64
eventq_index=0
size=131072

[system.ruby.l1_cntrl1.L1Icache]
type=RubyCache
children=replacement_policy
assoc=2
block_size=0
dataAccessLatency=1
dataArrayBanks=1
eventq_index=0
is_icache=true
replacement_policy=system.ruby.l1_cntrl1.L1Icache.replacement_policy
resourceStalls=false
ruby_system=system.ruby
size=131072
start_index_bit=6
tagAccessLatency=1
tagArrayBanks=1

[system.ruby.l1_cntrl1.L1Icache.replacement_policy]
type=PseudoLRUReplacementPolicy
assoc=2
block_size=64
eventq_index=0
size=131072

[system.ruby.l1_cntrl1.mandatoryQueue]
type=MessageBuffer
buffer_size=0
eventq_index=0
ordered=false
randomization=false

[system.ruby.l1_cntrl1.optionalQueue]
type=MessageBuffer
buffer_size=0
eventq_index=0
ordered=false
randomization=false

[system.ruby.l1_cntrl1.prefetcher]
type=Prefetcher
cross_page=false
eventq_index=0
nonunit_filter=8
num_startup_pfs=1
num_streams=4
pf_per_stream=1
sys=system
train_misses=4
unit_filter=8

[system.ruby.l1_cntrl1.requestFromL1Cache]
type=MessageBuffer
buffer_size=0
eventq_index=0
ordered=false
randomization=false
master=system.ruby.network.slave[3]

[system.ruby.l1_cntrl1.requestToL1Cache]
type=MessageBuffer
buffer_size=0
eventq_index=0
ordered=false
randomization=false
slave=system.ruby.network.master[2]

[system.ruby.l1_cntrl1.responseFromL1Cache]
type=MessageBuffer
buffer_size=0
eventq_index=0
ordered=false
randomization=false
master=system.ruby.network.slave[4]

[system.ruby.l1_cntrl1.responseToL1Cache]
type=MessageBuffer
buffer_size=0
eventq_index=0
ordered=false
randomization=false
slave=system.ruby.network.master[3]

[system.ruby.l1_cntrl1.sequencer]
type=RubySequencer
clk_domain=system.ruby.clk_domain
coreid=99
dcache=system.ruby.l1_cntrl1.L1Dcache
dcache_hit_latency=1
deadlock_threshold=500000
default_p_state=UNDEFINED
eventq_index=0
garnet_standalone=false
icache=system.ruby.l1_cntrl1.L1Icache
icache_hit_latency=1
is_cpu_sequencer=true
max_outstanding_requests=16
no_retry_on_stall=true
p_state_clk_gate_bins=20
p_state_clk_gate_max=1000000000
p_state_clk_gate_min=1
power_model=
ruby_system=system.ruby
support_data_reqs=true
support_inst_reqs=true
system=system
using_ruby_tester=true
version=1
slave=system.cpu.cpuInstDataPort[1]

[system.ruby.l1_cntrl1.unblockFromL1Cache]
type=MessageBuffer
buffer_size=0
eventq_index=0
ordered=false
randomization=false
master=system.ruby.network.slave[5]

[system.ruby.l1_cntrl2]
type=L1Cache_Controller
children=L1Dcache L1Icache mandatoryQueue optionalQueue prefetcher requestFromL1Cache requestToL1Cache responseFromL1Cache responseToL1Cache sequencer unblockFromL1Cache
L1Dcache=system.ruby.l1_cntrl2.L1Dcache
L1Icache=system.ruby.l1_cntrl2.L1Icache
addr_ranges=0:18446744073709551615:0:0:0:0
buffer_size=0
clk_domain=system.ruby.clk_domain
cluster_id=0
default_p_state=UNDEFINED
enable_prefetch=false
eventq_index=0
l1_request_latency=2
l1_response_latency=2
l2_select_num_bits=0
mandatoryQueue=system.ruby.l1_cntrl2.mandatoryQueue
number_of_TBEs=256
optionalQueue=system.ruby.l1_cntrl2.optionalQueue
p_state_clk_gate_bins=20
p_state_clk_gate_max=1000000000
p_state_clk_gate_min=1
power_model=
prefetcher=system.ruby.l1_cntrl2.prefetcher
recycle_latency=10
requestFromL1Cache=system.ruby.l1_cntrl2.requestFromL1Cache
requestToL1Cache=system.ruby.l1_cntrl2.requestToL1Cache
responseFromL1Cache=system.ruby.l1_cntrl2.responseFromL1Cache
responseToL1Cache=system.ruby.l1_cntrl2.responseToL1Cache
ruby_system=system.ruby
send_evictions=true
sequencer=system.ruby.l1_cntrl2.sequencer
system=system
to_l2_latency=1
transitions_per_cycle=4
unblockFromL1Cache=system.ruby.l1_cntrl2.unblockFromL1Cache
version=2

[system.ruby.l1_cntrl2.L1Dcache]
type=RubyCache
children=replacement_policy
assoc=2
block_size=0
dataAccessLatency=1
dataArrayBanks=1
eventq_index=0
is_icache=false
replacement_policy=system.ruby.l1_cntrl2.L1Dcache.replacement_policy
resourceStalls=false
ruby_system=system.ruby
size=131072
start_index_bit=6
tagAccessLatency=1
tagArrayBanks=1

[system.ruby.l1_cntrl2.L1Dcache.replacement_policy]
type=PseudoLRUReplacementPolicy
assoc=2
block_size=64
eventq_index=0
size=131072

[system.ruby.l1_cntrl2.L1Icache]
type=RubyCache
children=replacement_policy
assoc=2
block_size=0
dataAccessLatency=1
dataArrayBanks=1
eventq_index=0
is_icache=true
replacement_policy=system.ruby.l1_cntrl2.L1Icache.replacement_policy
resourceStalls=false
ruby_system=system.ruby
size=131072
start_index_bit=6
tagAccessLatency=1
tagArrayBanks=1

[system.ruby.l1_cntrl2.L1Icache.replacement_policy]
type=PseudoLRUReplacementPolicy
assoc=2
block_size=64
eventq_index=0
size=131072

[system.ruby.l1_cntrl2.mandatoryQueue]
type=MessageBuffer
buffer_size=0
eventq_index=0
ordered=false
randomization=false

[system.ruby.l1_cntrl2.optionalQueue]
type=MessageBuffer
buffer_size=0
eventq_index=0
ordered=false
randomization=false

[system.ruby.l1_cntrl2.prefetcher]
type=Prefetcher
cross_page=false
eventq_index=0
nonunit_filter=8
num_startup_pfs=1
num_streams=4
pf_per_stream=1
sys=system
train_misses=4
unit_filter=8

[system.ruby.l1_cntrl2.requestFromL1Cache]
type=MessageBuffer
buffer_size=0
eventq_index=0
ordered=false
randomization=false
master=system.ruby.network.slave[6]

[system.ruby.l1_cntrl2.requestToL1Cache]
type=MessageBuffer
buffer_size=0
eventq_index=0
ordered=false
randomization=false
slave=system.ruby.network.master[4]

[system.ruby.l1_cntrl2.responseFromL1Cache]
type=MessageBuffer
buffer_size=0
eventq_index=0
ordered=false
randomization=false
master=system.ruby.network.slave[7]

[system.ruby.l1_cntrl2.responseToL1Cache]
type=MessageBuffer
buffer_size=0
eventq_index=0
ordered=false
randomization=false
slave=system.ruby.network.master[5]

[system.ruby.l1_cntrl2.sequencer]
type=RubySequencer
clk_domain=system.ruby.clk_domain
coreid=99
dcache=system.ruby.l1_cntrl2.L1Dcache
dcache_hit_latency=1
deadlock_threshold=500000
default_p_state=UNDEFINED
eventq_index=0
garnet_standalone=false
icache=system.ruby.l1_cntrl2.L1Icache
icache_hit_latency=1
is_cpu_sequencer=true
max_outstanding_requests=16
no_retry_on_stall=true
p_state_clk_gate_bins=20
p_state_clk_gate_max=1000000000
p_state_clk_gate_min=1
power_model=
ruby_system=system.ruby
support_data_reqs=true
support_inst_reqs=true
system=system
using_ruby_tester=true
version=2
slave=system.cpu.cpuInstDataPort[2]

[system.ruby.l1_cntrl2.unblockFromL1Cache]
type=MessageBuffer
buffer_size=0
eventq_index=0
ordered=false
randomization=false
master=system.ruby.network.slave[8]

[system.ruby.l1_cntrl3]
type=L1Cache_Controller
children=L1Dcache L1Icache mandatoryQueue optionalQueue prefetcher requestFromL1Cache requestToL1Cache responseFromL1Cache responseToL1Cache sequencer unblockFromL1Cache
L1Dcache=system.ruby.l1_cntrl3.L1Dcache
L1Icache=system.ruby.l1_cntrl3.L1Icache
addr_ranges=0:18446744073709551615:0:0:0:0
buffer_size=0
clk_domain=system.ruby.clk_domain
cluster_id=0
default_p_state=UNDEFINED
enable_prefetch=false
eventq_index=0
l1_request_latency=2
l1_response_latency=2
l2_select_num_bits=0
mandatoryQueue=system.ruby.l1_cntrl3.mandatoryQueue
number_of_TBEs=256
optionalQueue=system.ruby.l1_cntrl3.optionalQueue
p_state_clk_gate_bins=20
p_state_clk_gate_max=1000000000
p_state_clk_gate_min=1
power_model=
prefetcher=system.ruby.l1_cntrl3.prefetcher
recycle_latency=10
requestFromL1Cache=system.ruby.l1_cntrl3.requestFromL1Cache
requestToL1Cache=system.ruby.l1_cntrl3.requestToL1Cache
responseFromL1Cache=system.ruby.l1_cntrl3.responseFromL1Cache
responseToL1Cache=system.ruby.l1_cntrl3.responseToL1Cache
ruby_system=system.ruby
send_evictions=true
sequencer=system.ruby.l1_cntrl3.sequencer
system=system
to_l2_latency=1
transitions_per_cycle=4
unblockFromL1Cache=system.ruby.l1_cntrl3.unblockFromL1Cache
version=3

[system.ruby.l1_cntrl3.L1Dcache]
type=RubyCache
children=replacement_policy
assoc=2
block_size=0
dataAccessLatency=1
dataArrayBanks=1
eventq_index=0
is_icache=false
replacement_policy=system.ruby.l1_cntrl3.L1Dcache.replacement_policy
resourceStalls=false
ruby_system=system.ruby
size=131072
start_index_bit=6
tagAccessLatency=1
tagArrayBanks=1

[system.ruby.l1_cntrl3.L1Dcache.replacement_policy]
type=PseudoLRUReplacementPolicy
assoc=2
block_size=64
eventq_index=0
size=131072

[system.ruby.l1_cntrl3.L1Icache]
type=RubyCache
children=replacement_policy
assoc=2
block_size=0
dataAccessLatency=1
dataArrayBanks=1
eventq_index=0
is_icache=true
replacement_policy=system.ruby.l1_cntrl3.L1Icache.replacement_policy
resourceStalls=false
ruby_system=system.ruby
size=131072
start_index_bit=6
tagAccessLatency=1
tagArrayBanks=1

[system.ruby.l1_cntrl3.L1Icache.replacement_policy]
type=PseudoLRUReplacementPolicy
assoc=2
block_size=64
eventq_index=0
size=131072

[system.ruby.l1_cntrl3.mandatoryQueue]
type=MessageBuffer
buffer_size=0
eventq_index=0
ordered=false
randomization=false

[system.ruby.l1_cntrl3.optionalQueue]
type=MessageBuffer
buffer_size=0
eventq_index=0
ordered=false
randomization=false

[system.ruby.l1_cntrl3.prefetcher]
type=Prefetcher
cross_page=false
eventq_index=0
nonunit_filter=8
num_startup_pfs=1
num_streams=4
pf_per_stream=1
sys=system
train_misses=4
unit_filter=8

[system.ruby.l1_cntrl3.requestFromL1Cache]
type=MessageBuffer
buffer_size=0
eventq_index=0
ordered=false
randomization=false
master=system.ruby.network.slave[9]

[system.ruby.l1_cntrl3.requestToL1Cache]
type=MessageBuffer
buffer_size=0
eventq_index=0
ordered=false
randomization=false
slave=system.ruby.network.master[6]

[system.ruby.l1_cntrl3.responseFromL1Cache]
type=MessageBuffer
buffer_size=0
eventq_index=0
ordered=false
randomization=false
master=system.ruby.network.slave[10]

[system.ruby.l1_cntrl3.responseToL1Cache]
type=MessageBuffer
buffer_size=0
eventq_index=0
ordered=false
randomization=false
slave=system.ruby.network.master[7]

[system.ruby.l1_cntrl3.sequencer]
type=RubySequencer
clk_domain=system.ruby.clk_domain
coreid=99
dcache=system.ruby.l1_cntrl3.L1Dcache
dcache_hit_latency=1
deadlock_threshold=500000
default_p_state=UNDEFINED
eventq_index=0
garnet_standalone=false
icache=system.ruby.l1_cntrl3.L1Icache
icache_hit_latency=1
is_cpu_sequencer=true
max_outstanding_requests=16
no_retry_on_stall=true
p_state_clk_gate_bins=20
p_state_clk_gate_max=1000000000
p_state_clk_gate_min=1
power_model=
ruby_system=system.ruby
support_data_reqs=true
support_inst_reqs=true
system=system
using_ruby_tester=true
version=3
slave=system.cpu.cpuInstDataPort[3]

[system.ruby.l1_cntrl3.unblockFromL1Cache]
type=MessageBuffer
buffer_size=0
eventq_index=0
ordered=false
randomization=false
master=system.ruby.network.slave[11]

[system.ruby.l1_cntrl4]
type=L1Cache_Controller
children=L1Dcache L1Icache mandatoryQueue optionalQueue prefetcher requestFromL1Cache requestToL1Cache responseFromL1Cache responseToL1Cache sequencer unblockFromL1Cache
L1Dcache=system.ruby.l1_cntrl4.L1Dcache
L1Icache=system.ruby.l1_cntrl4.L1Icache
addr_ranges=0:18446744073709551615:0:0:0:0
buffer_size=0
clk_domain=system.ruby.clk_domain
cluster_id=0
default_p_state=UNDEFINED
enable_prefetch=false
eventq_index=0
l1_request_latency=2
l1_response_latency=2
l2_select_num_bits=0
mandatoryQueue=system.ruby.l1_cntrl4.mandatoryQueue
number_of_TBEs=256
optionalQueue=system.ruby.l1_cntrl4.optionalQueue
p_state_clk_gate_bins=20
p_state_clk_gate_max=1000000000
p_state_clk_gate_min=1
power_model=
prefetcher=system.ruby.l1_cntrl4.prefetcher
recycle_latency=10
requestFromL1Cache=system.ruby.l1_cntrl4.requestFromL1Cache
requestToL1Cache=system.ruby.l1_cntrl4.requestToL1Cache
responseFromL1Cache=system.ruby.l1_cntrl4.responseFromL1Cache
responseToL1Cache=system.ruby.l1_cntrl4.responseToL1Cache
ruby_system=system.ruby
send_evictions=true
sequencer=system.ruby.l1_cntrl4.sequencer
system=system
to_l2_latency=1
transitions_per_cycle=4
unblockFromL1Cache=system.ruby.l1_cntrl4.unblockFromL1Cache
version=4

[system.ruby.l1_cntrl4.L1Dcache]
type=RubyCache
children=replacement_policy
assoc=2
block_size=0
dataAccessLatency=1
dataArrayBanks=1
eventq_index=0
is_icache=false
replacement_policy=system.ruby.l1_cntrl4.L1Dcache.replacement_policy
resourceStalls=false
ruby_system=system.ruby
size=131072
start_index_bit=6
tagAccessLatency=1
tagArrayBanks=1

[system.ruby.l1_cntrl4.L1Dcache.replacement_policy]
type=PseudoLRUReplacementPolicy
assoc=2
block_size=64
eventq_index=0
size=131072

[system.ruby.l1_cntrl4.L1Icache]
type=RubyCache
children=replacement_policy
assoc=2
block_size=0
dataAccessLatency=1
dataArrayBanks=1
eventq_index=0
is_icache=true
replacement_policy=system.ruby.l1_cntrl4.L1Icache.replacement_policy
resourceStalls=false
ruby_system=system.ruby
size=131072
start_index_bit=6
tagAccessLatency=1
tagArrayBanks=1

[system.ruby.l1_cntrl4.L1Icache.replacement_policy]
type=PseudoLRUReplacementPolicy
assoc=2
block_size=64
eventq_index=0
size=131072

[system.ruby.l1_cntrl4.mandatoryQueue]
type=MessageBuffer
buffer_size=0
eventq_index=0
ordered=false
randomization=false

[system.ruby.l1_cntrl4.optionalQueue]
type=MessageBuffer
buffer_size=0
eventq_index=0
ordered=false
randomization=false

[system.ruby.l1_cntrl4.prefetcher]
type=Prefetcher
cross_page=false
eventq_index=0
nonunit_filter=8
num_startup_pfs=1
num_streams=4
pf_per_stream=1
sys=system
train_misses=4
unit_filter=8

[system.ruby.l1_cntrl4.requestFromL1Cache]
type=MessageBuffer
buffer_size=0
eventq_index=0
ordered=false
randomization=false
master=system.ruby.network.slave[12]

[system.ruby.l1_cntrl4.requestToL1Cache]
type=MessageBuffer
buffer_size=0
eventq_index=0
ordered=false
randomization=false
slave=system.ruby.network.master[8]

[system.ruby.l1_cntrl4.responseFromL1Cache]
type=MessageBuffer
buffer_size=0
eventq_index=0
ordered=false
randomization=false
master=system.ruby.network.slave[13]

[system.ruby.l1_cntrl4.responseToL1Cache]
type=MessageBuffer
buffer_size=0
eventq_index=0
ordered=false
randomization=false
slave=system.ruby.network.master[9]

[system.ruby.l1_cntrl4.sequencer]
type=RubySequencer
clk_domain=system.ruby.clk_domain
coreid=99
dcache=system.ruby.l1_cntrl4.L1Dcache
dcache_hit_latency=1
deadlock_threshold=500000
default_p_state=UNDEFINED
eventq_index=0
garnet_standalone=false
icache=system.ruby.l1_cntrl4.L1Icache
icache_hit_latency=1
is_cpu_sequencer=true
max_outstanding_requests=16
no_retry_on_stall=true
p_state_clk_gate_bins=20
p_state_clk_gate_max=1000000000
p_state_clk_gate_min=1
power_model=
ruby_system=system.ruby
support_data_reqs=true
support_inst_reqs=true
system=system
using_ruby_tester=true
version=4
slave=system.cpu.cpuInstDataPort[4]

[system.ruby.l1_cntrl4.unblockFromL1Cache]
type=MessageBuffer
buffer_size=0
eventq_index=0
ordered=false
randomization=false
master=system.ruby.network.slave[14]

[system.ruby.l1_cntrl5]
type=L1Cache_Controller
children=L1Dcache L1Icache mandatoryQueue optionalQueue prefetcher requestFromL1Cache requestToL1Cache responseFromL1Cache responseToL1Cache sequencer unblockFromL1Cache
L1Dcache=system.ruby.l1_cntrl5.L1Dcache
L1Icache=system.ruby.l1_cntrl5.L1Icache
addr_ranges=0:18446744073709551615:0:0:0:0
buffer_size=0
clk_domain=system.ruby.clk_domain
cluster_id=0
default_p_state=UNDEFINED
enable_prefetch=false
eventq_index=0
l1_request_latency=2
l1_response_latency=2
l2_select_num_bits=0
mandatoryQueue=system.ruby.l1_cntrl5.mandatoryQueue
number_of_TBEs=256
optionalQueue=system.ruby.l1_cntrl5.optionalQueue
p_state_clk_gate_bins=20
p_state_clk_gate_max=1000000000
p_state_clk_gate_min=1
power_model=
prefetcher=system.ruby.l1_cntrl5.prefetcher
recycle_latency=10
requestFromL1Cache=system.ruby.l1_cntrl5.requestFromL1Cache
requestToL1Cache=system.ruby.l1_cntrl5.requestToL1Cache
responseFromL1Cache=system.ruby.l1_cntrl5.responseFromL1Cache
responseToL1Cache=system.ruby.l1_cntrl5.responseToL1Cache
ruby_system=system.ruby
send_evictions=true
sequencer=system.ruby.l1_cntrl5.sequencer
system=system
to_l2_latency=1
transitions_per_cycle=4
unblockFromL1Cache=system.ruby.l1_cntrl5.unblockFromL1Cache
version=5

[system.ruby.l1_cntrl5.L1Dcache]
type=RubyCache
children=replacement_policy
assoc=2
block_size=0
dataAccessLatency=1
dataArrayBanks=1
eventq_index=0
is_icache=false
replacement_policy=system.ruby.l1_cntrl5.L1Dcache.replacement_policy
resourceStalls=false
ruby_system=system.ruby
size=131072
start_index_bit=6
tagAccessLatency=1
tagArrayBanks=1

[system.ruby.l1_cntrl5.L1Dcache.replacement_policy]
type=PseudoLRUReplacementPolicy
assoc=2
block_size=64
eventq_index=0
size=131072

[system.ruby.l1_cntrl5.L1Icache]
type=RubyCache
children=replacement_policy
assoc=2
block_size=0
dataAccessLatency=1
dataArrayBanks=1
eventq_index=0
is_icache=true
replacement_policy=system.ruby.l1_cntrl5.L1Icache.replacement_policy
resourceStalls=false
ruby_system=system.ruby
size=131072
start_index_bit=6
tagAccessLatency=1
tagArrayBanks=1

[system.ruby.l1_cntrl5.L1Icache.replacement_policy]
type=PseudoLRUReplacementPolicy
assoc=2
block_size=64
eventq_index=0
size=131072

[system.ruby.l1_cntrl5.mandatoryQueue]
type=MessageBuffer
buffer_size=0
eventq_index=0
ordered=false
randomization=false

[system.ruby.l1_cntrl5.optionalQueue]
type=MessageBuffer
buffer_size=0
eventq_index=0
ordered=false
randomization=false

[system.ruby.l1_cntrl5.prefetcher]
type=Prefetcher
cross_page=false
eventq_index=0
nonunit_filter=8
num_startup_pfs=1
num_streams=4
pf_per_stream=1
sys=system
train_misses=4
unit_filter=8

[system.ruby.l1_cntrl5.requestFromL1Cache]
type=MessageBuffer
buffer_size=0
eventq_index=0
ordered=false
randomization=false
master=system.ruby.network.slave[15]

[system.ruby.l1_cntrl5.requestToL1Cache]
type=MessageBuffer
buffer_size=0
eventq_index=0
ordered=false
randomization=false
slave=system.ruby.network.master[10]

[system.ruby.l1_cntrl5.responseFromL1Cache]
type=MessageBuffer
buffer_size=0
eventq_index=0
ordered=false
randomization=false
master=system.ruby.network.slave[16]

[system.ruby.l1_cntrl5.responseToL1Cache]
type=MessageBuffer
buffer_size=0
eventq_index=0
ordered=false
randomization=false
slave=system.ruby.network.master[11]

[system.ruby.l1_cntrl5.sequencer]
type=RubySequencer
clk_domain=system.ruby.clk_domain
coreid=99
dcache=system.ruby.l1_cntrl5.L1Dcache
dcache_hit_latency=1
deadlock_threshold=500000
default_p_state=UNDEFINED
eventq_index=0
garnet_standalone=false
icache=system.ruby.l1_cntrl5.L1Icache
icache_hit_latency=1
is_cpu_sequencer=true
max_outstanding_requests=16
no_retry_on_stall=true
p_state_clk_gate_bins=20
p_state_clk_gate_max=1000000000
p_state_clk_gate_min=1
power_model=
ruby_system=system.ruby
support_data_reqs=true
support_inst_reqs=true
system=system
using_ruby_tester=true
version=5
slave=system.cpu.cpuInstDataPort[5]

[system.ruby.l1_cntrl5.unblockFromL1Cache]
type=MessageBuffer
buffer_size=0
eventq_index=0
ordered=false
randomization=false
master=system.ruby.network.slave[17]
